/*--------------------------------*- C++ -*----------------------------------*\
| =========                 |                                                 |
| \\      /  F ield         | OpenFOAM: The Open Source CFD Toolbox           |
|  \\    /   O peration     | Version:  1.7.x                                 |
|   \\  /    A nd           | Web:      www.OpenFOAM.com                      |
|    \\/     M anipulation  |                                                 |
\*---------------------------------------------------------------------------*/
FoamFile
{
    version         2.0;
    format          ascii;

    class           dictionary;
    object          setDiscreteFieldsDict;
}
Fields
(
	keyword1
	{
		field U;        //targetField        		
                type vector;    //type "scalar" or "vector" 
		direction "z";  //direction "x","y", or "z" 
		internal false;  //set internal field or not ,true or false
		patchNames
                (
	                inlet
                );              //patchNames to set value 
                profile
                (
			(0.0 2.5 0.292102 3.89220998952 7.14987747e-16 8.87444069202e-19)
			(0.0 7.5 0.292102 3.89220998952 7.14987747e-16 8.87444069202e-19)
			(0.0 12.5 0.292102 3.89220998952 7.14987747e-16 8.87444069202e-19)
			(0.0 17.5 0.292102 3.89220998952 7.14987747e-16 8.87444069202e-19)
			(0.0 22.5 0.292102 3.89220998952 7.14987747e-16 8.87444069202e-19)
			(0.0 27.5 0.292102 3.89220998952 7.14987747e-16 8.87444069202e-19)
			(0.0 32.5 0.292102 3.89220998952 7.14987747e-16 8.87444069202e-19)
			(0.0 37.5 0.292102 3.89220998952 7.14987747e-16 8.87444069202e-19)
			(0.0 42.5 0.292102 3.89220998952 7.14987747e-16 8.87444069202e-19)
			(0.0 47.5 0.292102 3.89220998952 7.14987747e-16 8.87444069202e-19)
			(0.0 52.5 0.292102 3.89220998952 7.14987747e-16 8.87444069202e-19)
			(0.0 57.5 0.292102 3.89220998952 7.14987747e-16 8.87444069202e-19)
			(0.0 62.5 0.292102 3.89220998952 7.14987747e-16 8.87444069202e-19)
			(0.0 67.5 0.292102 3.89220998952 7.14987747e-16 8.87444069202e-19)
			(0.0 72.5 0.292102 3.89220998952 7.14987747e-16 8.87444069202e-19)
			(0.0 77.5 0.292102 3.89220998952 7.14987747e-16 8.87444069202e-19)
			(0.0 82.5 0.292102 3.89220998952 7.14987747e-16 8.87444069202e-19)
			(0.0 87.5 0.292102 3.89220998952 7.14987747e-16 8.87444069202e-19)
			(0.0 92.5 0.292102 3.89220998952 7.14987747e-16 8.87444069202e-19)
			(0.0 97.5 0.292102 3.89220998952 7.14987747e-16 8.87444069202e-19)
			(0.0 2.5 0.89027 5.04126672219 9.26066134988e-16 1.08443746449e-18)
			(0.0 7.5 0.89027 5.04126672219 9.26066134988e-16 1.08443746449e-18)
			(0.0 12.5 0.89027 5.04126672219 9.26066134988e-16 1.08443746449e-18)
			(0.0 17.5 0.89027 5.04126672219 9.26066134988e-16 1.08443746449e-18)
			(0.0 22.5 0.89027 5.04126672219 9.26066134988e-16 1.08443746449e-18)
			(0.0 27.5 0.89027 5.04126672219 9.26066134988e-16 1.08443746449e-18)
			(0.0 32.5 0.89027 5.04126672219 9.26066134988e-16 1.08443746449e-18)
			(0.0 37.5 0.89027 5.04126672219 9.26066134988e-16 1.08443746449e-18)
			(0.0 42.5 0.89027 5.04126672219 9.26066134988e-16 1.08443746449e-18)
			(0.0 47.5 0.89027 5.04126672219 9.26066134988e-16 1.08443746449e-18)
			(0.0 52.5 0.89027 5.04126672219 9.26066134988e-16 1.08443746449e-18)
			(0.0 57.5 0.89027 5.04126672219 9.26066134988e-16 1.08443746449e-18)
			(0.0 62.5 0.89027 5.04126672219 9.26066134988e-16 1.08443746449e-18)
			(0.0 67.5 0.89027 5.04126672219 9.26066134988e-16 1.08443746449e-18)
			(0.0 72.5 0.89027 5.04126672219 9.26066134988e-16 1.08443746449e-18)
			(0.0 77.5 0.89027 5.04126672219 9.26066134988e-16 1.08443746449e-18)
			(0.0 82.5 0.89027 5.04126672219 9.26066134988e-16 1.08443746449e-18)
			(0.0 87.5 0.89027 5.04126672219 9.26066134988e-16 1.08443746449e-18)
			(0.0 92.5 0.89027 5.04126672219 9.26066134988e-16 1.08443746449e-18)
			(0.0 97.5 0.89027 5.04126672219 9.26066134988e-16 1.08443746449e-18)
			(0.0 2.5 1.51703 5.57500769219 1.0241151138e-15 7.87845956631e-18)
			(0.0 7.5 1.51703 5.57500769219 1.0241151138e-15 7.87845956631e-18)
			(0.0 12.5 1.51703 5.57500769219 1.0241151138e-15 7.87845956631e-18)
			(0.0 17.5 1.51703 5.57500769219 1.0241151138e-15 7.87845956631e-18)
			(0.0 22.5 1.51703 5.57500769219 1.0241151138e-15 7.87845956631e-18)
			(0.0 27.5 1.51703 5.57500769219 1.0241151138e-15 7.87845956631e-18)
			(0.0 32.5 1.51703 5.57500769219 1.0241151138e-15 7.87845956631e-18)
			(0.0 37.5 1.51703 5.57500769219 1.0241151138e-15 7.87845956631e-18)
			(0.0 42.5 1.51703 5.57500769219 1.0241151138e-15 7.87845956631e-18)
			(0.0 47.5 1.51703 5.57500769219 1.0241151138e-15 7.87845956631e-18)
			(0.0 52.5 1.51703 5.57500769219 1.0241151138e-15 7.87845956631e-18)
			(0.0 57.5 1.51703 5.57500769219 1.0241151138e-15 7.87845956631e-18)
			(0.0 62.5 1.51703 5.57500769219 1.0241151138e-15 7.87845956631e-18)
			(0.0 67.5 1.51703 5.57500769219 1.0241151138e-15 7.87845956631e-18)
			(0.0 72.5 1.51703 5.57500769219 1.0241151138e-15 7.87845956631e-18)
			(0.0 77.5 1.51703 5.57500769219 1.0241151138e-15 7.87845956631e-18)
			(0.0 82.5 1.51703 5.57500769219 1.0241151138e-15 7.87845956631e-18)
			(0.0 87.5 1.51703 5.57500769219 1.0241151138e-15 7.87845956631e-18)
			(0.0 92.5 1.51703 5.57500769219 1.0241151138e-15 7.87845956631e-18)
			(0.0 97.5 1.51703 5.57500769219 1.0241151138e-15 7.87845956631e-18)
			(0.0 2.5 2.17375 5.93141095541 1.08958420382e-15 7.04775355303e-18)
			(0.0 7.5 2.17375 5.93141095541 1.08958420382e-15 7.04775355303e-18)
			(0.0 12.5 2.17375 5.93141095541 1.08958420382e-15 7.04775355303e-18)
			(0.0 17.5 2.17375 5.93141095541 1.08958420382e-15 7.04775355303e-18)
			(0.0 22.5 2.17375 5.93141095541 1.08958420382e-15 7.04775355303e-18)
			(0.0 27.5 2.17375 5.93141095541 1.08958420382e-15 7.04775355303e-18)
			(0.0 32.5 2.17375 5.93141095541 1.08958420382e-15 7.04775355303e-18)
			(0.0 37.5 2.17375 5.93141095541 1.08958420382e-15 7.04775355303e-18)
			(0.0 42.5 2.17375 5.93141095541 1.08958420382e-15 7.04775355303e-18)
			(0.0 47.5 2.17375 5.93141095541 1.08958420382e-15 7.04775355303e-18)
			(0.0 52.5 2.17375 5.93141095541 1.08958420382e-15 7.04775355303e-18)
			(0.0 57.5 2.17375 5.93141095541 1.08958420382e-15 7.04775355303e-18)
			(0.0 62.5 2.17375 5.93141095541 1.08958420382e-15 7.04775355303e-18)
			(0.0 67.5 2.17375 5.93141095541 1.08958420382e-15 7.04775355303e-18)
			(0.0 72.5 2.17375 5.93141095541 1.08958420382e-15 7.04775355303e-18)
			(0.0 77.5 2.17375 5.93141095541 1.08958420382e-15 7.04775355303e-18)
			(0.0 82.5 2.17375 5.93141095541 1.08958420382e-15 7.04775355303e-18)
			(0.0 87.5 2.17375 5.93141095541 1.08958420382e-15 7.04775355303e-18)
			(0.0 92.5 2.17375 5.93141095541 1.08958420382e-15 7.04775355303e-18)
			(0.0 97.5 2.17375 5.93141095541 1.08958420382e-15 7.04775355303e-18)
			(0.0 2.5 2.86187 6.20313796354 1.13949638867e-15 9.88746676364e-18)
			(0.0 7.5 2.86187 6.20313796354 1.13949638867e-15 9.88746676364e-18)
			(0.0 12.5 2.86187 6.20313796354 1.13949638867e-15 9.88746676364e-18)
			(0.0 17.5 2.86187 6.20313796354 1.13949638867e-15 9.88746676364e-18)
			(0.0 22.5 2.86187 6.20313796354 1.13949638867e-15 9.88746676364e-18)
			(0.0 27.5 2.86187 6.20313796354 1.13949638867e-15 9.88746676364e-18)
			(0.0 32.5 2.86187 6.20313796354 1.13949638867e-15 9.88746676364e-18)
			(0.0 37.5 2.86187 6.20313796354 1.13949638867e-15 9.88746676364e-18)
			(0.0 42.5 2.86187 6.20313796354 1.13949638867e-15 9.88746676364e-18)
			(0.0 47.5 2.86187 6.20313796354 1.13949638867e-15 9.88746676364e-18)
			(0.0 52.5 2.86187 6.20313796354 1.13949638867e-15 9.88746676364e-18)
			(0.0 57.5 2.86187 6.20313796354 1.13949638867e-15 9.88746676364e-18)
			(0.0 62.5 2.86187 6.20313796354 1.13949638867e-15 9.88746676364e-18)
			(0.0 67.5 2.86187 6.20313796354 1.13949638867e-15 9.88746676364e-18)
			(0.0 72.5 2.86187 6.20313796354 1.13949638867e-15 9.88746676364e-18)
			(0.0 77.5 2.86187 6.20313796354 1.13949638867e-15 9.88746676364e-18)
			(0.0 82.5 2.86187 6.20313796354 1.13949638867e-15 9.88746676364e-18)
			(0.0 87.5 2.86187 6.20313796354 1.13949638867e-15 9.88746676364e-18)
			(0.0 92.5 2.86187 6.20313796354 1.13949638867e-15 9.88746676364e-18)
			(0.0 97.5 2.86187 6.20313796354 1.13949638867e-15 9.88746676364e-18)
			(0.0 2.5 3.58287 6.42442136055 1.18014883959e-15 1.32745390783e-19)
			(0.0 7.5 3.58287 6.42442136055 1.18014883959e-15 1.32745390783e-19)
			(0.0 12.5 3.58287 6.42442136055 1.18014883959e-15 1.32745390783e-19)
			(0.0 17.5 3.58287 6.42442136055 1.18014883959e-15 1.32745390783e-19)
			(0.0 22.5 3.58287 6.42442136055 1.18014883959e-15 1.32745390783e-19)
			(0.0 27.5 3.58287 6.42442136055 1.18014883959e-15 1.32745390783e-19)
			(0.0 32.5 3.58287 6.42442136055 1.18014883959e-15 1.32745390783e-19)
			(0.0 37.5 3.58287 6.42442136055 1.18014883959e-15 1.32745390783e-19)
			(0.0 42.5 3.58287 6.42442136055 1.18014883959e-15 1.32745390783e-19)
			(0.0 47.5 3.58287 6.42442136055 1.18014883959e-15 1.32745390783e-19)
			(0.0 52.5 3.58287 6.42442136055 1.18014883959e-15 1.32745390783e-19)
			(0.0 57.5 3.58287 6.42442136055 1.18014883959e-15 1.32745390783e-19)
			(0.0 62.5 3.58287 6.42442136055 1.18014883959e-15 1.32745390783e-19)
			(0.0 67.5 3.58287 6.42442136055 1.18014883959e-15 1.32745390783e-19)
			(0.0 72.5 3.58287 6.42442136055 1.18014883959e-15 1.32745390783e-19)
			(0.0 77.5 3.58287 6.42442136055 1.18014883959e-15 1.32745390783e-19)
			(0.0 82.5 3.58287 6.42442136055 1.18014883959e-15 1.32745390783e-19)
			(0.0 87.5 3.58287 6.42442136055 1.18014883959e-15 1.32745390783e-19)
			(0.0 92.5 3.58287 6.42442136055 1.18014883959e-15 1.32745390783e-19)
			(0.0 97.5 3.58287 6.42442136055 1.18014883959e-15 1.32745390783e-19)
			(0.0 2.5 4.33835 6.61354586534 1.21489259831e-15 -1.14917098537e-18)
			(0.0 7.5 4.33835 6.61354586534 1.21489259831e-15 -1.14917098537e-18)
			(0.0 12.5 4.33835 6.61354586534 1.21489259831e-15 -1.14917098537e-18)
			(0.0 17.5 4.33835 6.61354586534 1.21489259831e-15 -1.14917098537e-18)
			(0.0 22.5 4.33835 6.61354586534 1.21489259831e-15 -1.14917098537e-18)
			(0.0 27.5 4.33835 6.61354586534 1.21489259831e-15 -1.14917098537e-18)
			(0.0 32.5 4.33835 6.61354586534 1.21489259831e-15 -1.14917098537e-18)
			(0.0 37.5 4.33835 6.61354586534 1.21489259831e-15 -1.14917098537e-18)
			(0.0 42.5 4.33835 6.61354586534 1.21489259831e-15 -1.14917098537e-18)
			(0.0 47.5 4.33835 6.61354586534 1.21489259831e-15 -1.14917098537e-18)
			(0.0 52.5 4.33835 6.61354586534 1.21489259831e-15 -1.14917098537e-18)
			(0.0 57.5 4.33835 6.61354586534 1.21489259831e-15 -1.14917098537e-18)
			(0.0 62.5 4.33835 6.61354586534 1.21489259831e-15 -1.14917098537e-18)
			(0.0 67.5 4.33835 6.61354586534 1.21489259831e-15 -1.14917098537e-18)
			(0.0 72.5 4.33835 6.61354586534 1.21489259831e-15 -1.14917098537e-18)
			(0.0 77.5 4.33835 6.61354586534 1.21489259831e-15 -1.14917098537e-18)
			(0.0 82.5 4.33835 6.61354586534 1.21489259831e-15 -1.14917098537e-18)
			(0.0 87.5 4.33835 6.61354586534 1.21489259831e-15 -1.14917098537e-18)
			(0.0 92.5 4.33835 6.61354586534 1.21489259831e-15 -1.14917098537e-18)
			(0.0 97.5 4.33835 6.61354586534 1.21489259831e-15 -1.14917098537e-18)
			(0.0 2.5 5.12993 6.77925105833 1.24532888107e-15 -6.50853407315e-18)
			(0.0 7.5 5.12993 6.77925105833 1.24532888107e-15 -6.50853407315e-18)
			(0.0 12.5 5.12993 6.77925105833 1.24532888107e-15 -6.50853407315e-18)
			(0.0 17.5 5.12993 6.77925105833 1.24532888107e-15 -6.50853407315e-18)
			(0.0 22.5 5.12993 6.77925105833 1.24532888107e-15 -6.50853407315e-18)
			(0.0 27.5 5.12993 6.77925105833 1.24532888107e-15 -6.50853407315e-18)
			(0.0 32.5 5.12993 6.77925105833 1.24532888107e-15 -6.50853407315e-18)
			(0.0 37.5 5.12993 6.77925105833 1.24532888107e-15 -6.50853407315e-18)
			(0.0 42.5 5.12993 6.77925105833 1.24532888107e-15 -6.50853407315e-18)
			(0.0 47.5 5.12993 6.77925105833 1.24532888107e-15 -6.50853407315e-18)
			(0.0 52.5 5.12993 6.77925105833 1.24532888107e-15 -6.50853407315e-18)
			(0.0 57.5 5.12993 6.77925105833 1.24532888107e-15 -6.50853407315e-18)
			(0.0 62.5 5.12993 6.77925105833 1.24532888107e-15 -6.50853407315e-18)
			(0.0 67.5 5.12993 6.77925105833 1.24532888107e-15 -6.50853407315e-18)
			(0.0 72.5 5.12993 6.77925105833 1.24532888107e-15 -6.50853407315e-18)
			(0.0 77.5 5.12993 6.77925105833 1.24532888107e-15 -6.50853407315e-18)
			(0.0 82.5 5.12993 6.77925105833 1.24532888107e-15 -6.50853407315e-18)
			(0.0 87.5 5.12993 6.77925105833 1.24532888107e-15 -6.50853407315e-18)
			(0.0 92.5 5.12993 6.77925105833 1.24532888107e-15 -6.50853407315e-18)
			(0.0 97.5 5.12993 6.77925105833 1.24532888107e-15 -6.50853407315e-18)
			(0.0 2.5 5.95936 6.92802892736 1.27266296384e-15 -4.82244162996e-19)
			(0.0 7.5 5.95936 6.92802892736 1.27266296384e-15 -4.82244162996e-19)
			(0.0 12.5 5.95936 6.92802892736 1.27266296384e-15 -4.82244162996e-19)
			(0.0 17.5 5.95936 6.92802892736 1.27266296384e-15 -4.82244162996e-19)
			(0.0 22.5 5.95936 6.92802892736 1.27266296384e-15 -4.82244162996e-19)
			(0.0 27.5 5.95936 6.92802892736 1.27266296384e-15 -4.82244162996e-19)
			(0.0 32.5 5.95936 6.92802892736 1.27266296384e-15 -4.82244162996e-19)
			(0.0 37.5 5.95936 6.92802892736 1.27266296384e-15 -4.82244162996e-19)
			(0.0 42.5 5.95936 6.92802892736 1.27266296384e-15 -4.82244162996e-19)
			(0.0 47.5 5.95936 6.92802892736 1.27266296384e-15 -4.82244162996e-19)
			(0.0 52.5 5.95936 6.92802892736 1.27266296384e-15 -4.82244162996e-19)
			(0.0 57.5 5.95936 6.92802892736 1.27266296384e-15 -4.82244162996e-19)
			(0.0 62.5 5.95936 6.92802892736 1.27266296384e-15 -4.82244162996e-19)
			(0.0 67.5 5.95936 6.92802892736 1.27266296384e-15 -4.82244162996e-19)
			(0.0 72.5 5.95936 6.92802892736 1.27266296384e-15 -4.82244162996e-19)
			(0.0 77.5 5.95936 6.92802892736 1.27266296384e-15 -4.82244162996e-19)
			(0.0 82.5 5.95936 6.92802892736 1.27266296384e-15 -4.82244162996e-19)
			(0.0 87.5 5.95936 6.92802892736 1.27266296384e-15 -4.82244162996e-19)
			(0.0 92.5 5.95936 6.92802892736 1.27266296384e-15 -4.82244162996e-19)
			(0.0 97.5 5.95936 6.92802892736 1.27266296384e-15 -4.82244162996e-19)
			(0.0 2.5 6.82843 7.06354372381 1.29755399503e-15 9.90744120157e-18)
			(0.0 7.5 6.82843 7.06354372381 1.29755399503e-15 9.90744120157e-18)
			(0.0 12.5 6.82843 7.06354372381 1.29755399503e-15 9.90744120157e-18)
			(0.0 17.5 6.82843 7.06354372381 1.29755399503e-15 9.90744120157e-18)
			(0.0 22.5 6.82843 7.06354372381 1.29755399503e-15 9.90744120157e-18)
			(0.0 27.5 6.82843 7.06354372381 1.29755399503e-15 9.90744120157e-18)
			(0.0 32.5 6.82843 7.06354372381 1.29755399503e-15 9.90744120157e-18)
			(0.0 37.5 6.82843 7.06354372381 1.29755399503e-15 9.90744120157e-18)
			(0.0 42.5 6.82843 7.06354372381 1.29755399503e-15 9.90744120157e-18)
			(0.0 47.5 6.82843 7.06354372381 1.29755399503e-15 9.90744120157e-18)
			(0.0 52.5 6.82843 7.06354372381 1.29755399503e-15 9.90744120157e-18)
			(0.0 57.5 6.82843 7.06354372381 1.29755399503e-15 9.90744120157e-18)
			(0.0 62.5 6.82843 7.06354372381 1.29755399503e-15 9.90744120157e-18)
			(0.0 67.5 6.82843 7.06354372381 1.29755399503e-15 9.90744120157e-18)
			(0.0 72.5 6.82843 7.06354372381 1.29755399503e-15 9.90744120157e-18)
			(0.0 77.5 6.82843 7.06354372381 1.29755399503e-15 9.90744120157e-18)
			(0.0 82.5 6.82843 7.06354372381 1.29755399503e-15 9.90744120157e-18)
			(0.0 87.5 6.82843 7.06354372381 1.29755399503e-15 9.90744120157e-18)
			(0.0 92.5 6.82843 7.06354372381 1.29755399503e-15 9.90744120157e-18)
			(0.0 97.5 6.82843 7.06354372381 1.29755399503e-15 9.90744120157e-18)
			(0.0 2.5 7.73905 7.18847266643 1.32050349697e-15 -3.00330017118e-18)
			(0.0 7.5 7.73905 7.18847266643 1.32050349697e-15 -3.00330017118e-18)
			(0.0 12.5 7.73905 7.18847266643 1.32050349697e-15 -3.00330017118e-18)
			(0.0 17.5 7.73905 7.18847266643 1.32050349697e-15 -3.00330017118e-18)
			(0.0 22.5 7.73905 7.18847266643 1.32050349697e-15 -3.00330017118e-18)
			(0.0 27.5 7.73905 7.18847266643 1.32050349697e-15 -3.00330017118e-18)
			(0.0 32.5 7.73905 7.18847266643 1.32050349697e-15 -3.00330017118e-18)
			(0.0 37.5 7.73905 7.18847266643 1.32050349697e-15 -3.00330017118e-18)
			(0.0 42.5 7.73905 7.18847266643 1.32050349697e-15 -3.00330017118e-18)
			(0.0 47.5 7.73905 7.18847266643 1.32050349697e-15 -3.00330017118e-18)
			(0.0 52.5 7.73905 7.18847266643 1.32050349697e-15 -3.00330017118e-18)
			(0.0 57.5 7.73905 7.18847266643 1.32050349697e-15 -3.00330017118e-18)
			(0.0 62.5 7.73905 7.18847266643 1.32050349697e-15 -3.00330017118e-18)
			(0.0 67.5 7.73905 7.18847266643 1.32050349697e-15 -3.00330017118e-18)
			(0.0 72.5 7.73905 7.18847266643 1.32050349697e-15 -3.00330017118e-18)
			(0.0 77.5 7.73905 7.18847266643 1.32050349697e-15 -3.00330017118e-18)
			(0.0 82.5 7.73905 7.18847266643 1.32050349697e-15 -3.00330017118e-18)
			(0.0 87.5 7.73905 7.18847266643 1.32050349697e-15 -3.00330017118e-18)
			(0.0 92.5 7.73905 7.18847266643 1.32050349697e-15 -3.00330017118e-18)
			(0.0 97.5 7.73905 7.18847266643 1.32050349697e-15 -3.00330017118e-18)
			(0.0 2.5 8.6932 7.3049210782 1.34189198877e-15 8.36776422619e-18)
			(0.0 7.5 8.6932 7.3049210782 1.34189198877e-15 8.36776422619e-18)
			(0.0 12.5 8.6932 7.3049210782 1.34189198877e-15 8.36776422619e-18)
			(0.0 17.5 8.6932 7.3049210782 1.34189198877e-15 8.36776422619e-18)
			(0.0 22.5 8.6932 7.3049210782 1.34189198877e-15 8.36776422619e-18)
			(0.0 27.5 8.6932 7.3049210782 1.34189198877e-15 8.36776422619e-18)
			(0.0 32.5 8.6932 7.3049210782 1.34189198877e-15 8.36776422619e-18)
			(0.0 37.5 8.6932 7.3049210782 1.34189198877e-15 8.36776422619e-18)
			(0.0 42.5 8.6932 7.3049210782 1.34189198877e-15 8.36776422619e-18)
			(0.0 47.5 8.6932 7.3049210782 1.34189198877e-15 8.36776422619e-18)
			(0.0 52.5 8.6932 7.3049210782 1.34189198877e-15 8.36776422619e-18)
			(0.0 57.5 8.6932 7.3049210782 1.34189198877e-15 8.36776422619e-18)
			(0.0 62.5 8.6932 7.3049210782 1.34189198877e-15 8.36776422619e-18)
			(0.0 67.5 8.6932 7.3049210782 1.34189198877e-15 8.36776422619e-18)
			(0.0 72.5 8.6932 7.3049210782 1.34189198877e-15 8.36776422619e-18)
			(0.0 77.5 8.6932 7.3049210782 1.34189198877e-15 8.36776422619e-18)
			(0.0 82.5 8.6932 7.3049210782 1.34189198877e-15 8.36776422619e-18)
			(0.0 87.5 8.6932 7.3049210782 1.34189198877e-15 8.36776422619e-18)
			(0.0 92.5 8.6932 7.3049210782 1.34189198877e-15 8.36776422619e-18)
			(0.0 97.5 8.6932 7.3049210782 1.34189198877e-15 8.36776422619e-18)
			(0.0 2.5 9.69296 7.41433092212 1.36199069808e-15 7.57416667032e-18)
			(0.0 7.5 9.69296 7.41433092212 1.36199069808e-15 7.57416667032e-18)
			(0.0 12.5 9.69296 7.41433092212 1.36199069808e-15 7.57416667032e-18)
			(0.0 17.5 9.69296 7.41433092212 1.36199069808e-15 7.57416667032e-18)
			(0.0 22.5 9.69296 7.41433092212 1.36199069808e-15 7.57416667032e-18)
			(0.0 27.5 9.69296 7.41433092212 1.36199069808e-15 7.57416667032e-18)
			(0.0 32.5 9.69296 7.41433092212 1.36199069808e-15 7.57416667032e-18)
			(0.0 37.5 9.69296 7.41433092212 1.36199069808e-15 7.57416667032e-18)
			(0.0 42.5 9.69296 7.41433092212 1.36199069808e-15 7.57416667032e-18)
			(0.0 47.5 9.69296 7.41433092212 1.36199069808e-15 7.57416667032e-18)
			(0.0 52.5 9.69296 7.41433092212 1.36199069808e-15 7.57416667032e-18)
			(0.0 57.5 9.69296 7.41433092212 1.36199069808e-15 7.57416667032e-18)
			(0.0 62.5 9.69296 7.41433092212 1.36199069808e-15 7.57416667032e-18)
			(0.0 67.5 9.69296 7.41433092212 1.36199069808e-15 7.57416667032e-18)
			(0.0 72.5 9.69296 7.41433092212 1.36199069808e-15 7.57416667032e-18)
			(0.0 77.5 9.69296 7.41433092212 1.36199069808e-15 7.57416667032e-18)
			(0.0 82.5 9.69296 7.41433092212 1.36199069808e-15 7.57416667032e-18)
			(0.0 87.5 9.69296 7.41433092212 1.36199069808e-15 7.57416667032e-18)
			(0.0 92.5 9.69296 7.41433092212 1.36199069808e-15 7.57416667032e-18)
			(0.0 97.5 9.69296 7.41433092212 1.36199069808e-15 7.57416667032e-18)
			(0.0 2.5 10.7405 7.51783136049 1.38099928132e-15 1.81685830131e-18)
			(0.0 7.5 10.7405 7.51783136049 1.38099928132e-15 1.81685830131e-18)
			(0.0 12.5 10.7405 7.51783136049 1.38099928132e-15 1.81685830131e-18)
			(0.0 17.5 10.7405 7.51783136049 1.38099928132e-15 1.81685830131e-18)
			(0.0 22.5 10.7405 7.51783136049 1.38099928132e-15 1.81685830131e-18)
			(0.0 27.5 10.7405 7.51783136049 1.38099928132e-15 1.81685830131e-18)
			(0.0 32.5 10.7405 7.51783136049 1.38099928132e-15 1.81685830131e-18)
			(0.0 37.5 10.7405 7.51783136049 1.38099928132e-15 1.81685830131e-18)
			(0.0 42.5 10.7405 7.51783136049 1.38099928132e-15 1.81685830131e-18)
			(0.0 47.5 10.7405 7.51783136049 1.38099928132e-15 1.81685830131e-18)
			(0.0 52.5 10.7405 7.51783136049 1.38099928132e-15 1.81685830131e-18)
			(0.0 57.5 10.7405 7.51783136049 1.38099928132e-15 1.81685830131e-18)
			(0.0 62.5 10.7405 7.51783136049 1.38099928132e-15 1.81685830131e-18)
			(0.0 67.5 10.7405 7.51783136049 1.38099928132e-15 1.81685830131e-18)
			(0.0 72.5 10.7405 7.51783136049 1.38099928132e-15 1.81685830131e-18)
			(0.0 77.5 10.7405 7.51783136049 1.38099928132e-15 1.81685830131e-18)
			(0.0 82.5 10.7405 7.51783136049 1.38099928132e-15 1.81685830131e-18)
			(0.0 87.5 10.7405 7.51783136049 1.38099928132e-15 1.81685830131e-18)
			(0.0 92.5 10.7405 7.51783136049 1.38099928132e-15 1.81685830131e-18)
			(0.0 97.5 10.7405 7.51783136049 1.38099928132e-15 1.81685830131e-18)
			(0.0 2.5 11.8381 7.6162784 1.39908807273e-15 1.68992803636e-17)
			(0.0 7.5 11.8381 7.6162784 1.39908807273e-15 1.68992803636e-17)
			(0.0 12.5 11.8381 7.6162784 1.39908807273e-15 1.68992803636e-17)
			(0.0 17.5 11.8381 7.6162784 1.39908807273e-15 1.68992803636e-17)
			(0.0 22.5 11.8381 7.6162784 1.39908807273e-15 1.68992803636e-17)
			(0.0 27.5 11.8381 7.6162784 1.39908807273e-15 1.68992803636e-17)
			(0.0 32.5 11.8381 7.6162784 1.39908807273e-15 1.68992803636e-17)
			(0.0 37.5 11.8381 7.6162784 1.39908807273e-15 1.68992803636e-17)
			(0.0 42.5 11.8381 7.6162784 1.39908807273e-15 1.68992803636e-17)
			(0.0 47.5 11.8381 7.6162784 1.39908807273e-15 1.68992803636e-17)
			(0.0 52.5 11.8381 7.6162784 1.39908807273e-15 1.68992803636e-17)
			(0.0 57.5 11.8381 7.6162784 1.39908807273e-15 1.68992803636e-17)
			(0.0 62.5 11.8381 7.6162784 1.39908807273e-15 1.68992803636e-17)
			(0.0 67.5 11.8381 7.6162784 1.39908807273e-15 1.68992803636e-17)
			(0.0 72.5 11.8381 7.6162784 1.39908807273e-15 1.68992803636e-17)
			(0.0 77.5 11.8381 7.6162784 1.39908807273e-15 1.68992803636e-17)
			(0.0 82.5 11.8381 7.6162784 1.39908807273e-15 1.68992803636e-17)
			(0.0 87.5 11.8381 7.6162784 1.39908807273e-15 1.68992803636e-17)
			(0.0 92.5 11.8381 7.6162784 1.39908807273e-15 1.68992803636e-17)
			(0.0 97.5 11.8381 7.6162784 1.39908807273e-15 1.68992803636e-17)
			(0.0 2.5 12.9882 7.71040631543 1.41637827824e-15 1.67902140496e-17)
			(0.0 7.5 12.9882 7.71040631543 1.41637827824e-15 1.67902140496e-17)
			(0.0 12.5 12.9882 7.71040631543 1.41637827824e-15 1.67902140496e-17)
			(0.0 17.5 12.9882 7.71040631543 1.41637827824e-15 1.67902140496e-17)
			(0.0 22.5 12.9882 7.71040631543 1.41637827824e-15 1.67902140496e-17)
			(0.0 27.5 12.9882 7.71040631543 1.41637827824e-15 1.67902140496e-17)
			(0.0 32.5 12.9882 7.71040631543 1.41637827824e-15 1.67902140496e-17)
			(0.0 37.5 12.9882 7.71040631543 1.41637827824e-15 1.67902140496e-17)
			(0.0 42.5 12.9882 7.71040631543 1.41637827824e-15 1.67902140496e-17)
			(0.0 47.5 12.9882 7.71040631543 1.41637827824e-15 1.67902140496e-17)
			(0.0 52.5 12.9882 7.71040631543 1.41637827824e-15 1.67902140496e-17)
			(0.0 57.5 12.9882 7.71040631543 1.41637827824e-15 1.67902140496e-17)
			(0.0 62.5 12.9882 7.71040631543 1.41637827824e-15 1.67902140496e-17)
			(0.0 67.5 12.9882 7.71040631543 1.41637827824e-15 1.67902140496e-17)
			(0.0 72.5 12.9882 7.71040631543 1.41637827824e-15 1.67902140496e-17)
			(0.0 77.5 12.9882 7.71040631543 1.41637827824e-15 1.67902140496e-17)
			(0.0 82.5 12.9882 7.71040631543 1.41637827824e-15 1.67902140496e-17)
			(0.0 87.5 12.9882 7.71040631543 1.41637827824e-15 1.67902140496e-17)
			(0.0 92.5 12.9882 7.71040631543 1.41637827824e-15 1.67902140496e-17)
			(0.0 97.5 12.9882 7.71040631543 1.41637827824e-15 1.67902140496e-17)
			(0.0 2.5 14.1933 7.80079225554 1.4329852086e-15 1.12945253911e-17)
			(0.0 7.5 14.1933 7.80079225554 1.4329852086e-15 1.12945253911e-17)
			(0.0 12.5 14.1933 7.80079225554 1.4329852086e-15 1.12945253911e-17)
			(0.0 17.5 14.1933 7.80079225554 1.4329852086e-15 1.12945253911e-17)
			(0.0 22.5 14.1933 7.80079225554 1.4329852086e-15 1.12945253911e-17)
			(0.0 27.5 14.1933 7.80079225554 1.4329852086e-15 1.12945253911e-17)
			(0.0 32.5 14.1933 7.80079225554 1.4329852086e-15 1.12945253911e-17)
			(0.0 37.5 14.1933 7.80079225554 1.4329852086e-15 1.12945253911e-17)
			(0.0 42.5 14.1933 7.80079225554 1.4329852086e-15 1.12945253911e-17)
			(0.0 47.5 14.1933 7.80079225554 1.4329852086e-15 1.12945253911e-17)
			(0.0 52.5 14.1933 7.80079225554 1.4329852086e-15 1.12945253911e-17)
			(0.0 57.5 14.1933 7.80079225554 1.4329852086e-15 1.12945253911e-17)
			(0.0 62.5 14.1933 7.80079225554 1.4329852086e-15 1.12945253911e-17)
			(0.0 67.5 14.1933 7.80079225554 1.4329852086e-15 1.12945253911e-17)
			(0.0 72.5 14.1933 7.80079225554 1.4329852086e-15 1.12945253911e-17)
			(0.0 77.5 14.1933 7.80079225554 1.4329852086e-15 1.12945253911e-17)
			(0.0 82.5 14.1933 7.80079225554 1.4329852086e-15 1.12945253911e-17)
			(0.0 87.5 14.1933 7.80079225554 1.4329852086e-15 1.12945253911e-17)
			(0.0 92.5 14.1933 7.80079225554 1.4329852086e-15 1.12945253911e-17)
			(0.0 97.5 14.1933 7.80079225554 1.4329852086e-15 1.12945253911e-17)
			(0.0 2.5 15.456 7.8879205679 1.44898241975e-15 1.11611898272e-17)
			(0.0 7.5 15.456 7.8879205679 1.44898241975e-15 1.11611898272e-17)
			(0.0 12.5 15.456 7.8879205679 1.44898241975e-15 1.11611898272e-17)
			(0.0 17.5 15.456 7.8879205679 1.44898241975e-15 1.11611898272e-17)
			(0.0 22.5 15.456 7.8879205679 1.44898241975e-15 1.11611898272e-17)
			(0.0 27.5 15.456 7.8879205679 1.44898241975e-15 1.11611898272e-17)
			(0.0 32.5 15.456 7.8879205679 1.44898241975e-15 1.11611898272e-17)
			(0.0 37.5 15.456 7.8879205679 1.44898241975e-15 1.11611898272e-17)
			(0.0 42.5 15.456 7.8879205679 1.44898241975e-15 1.11611898272e-17)
			(0.0 47.5 15.456 7.8879205679 1.44898241975e-15 1.11611898272e-17)
			(0.0 52.5 15.456 7.8879205679 1.44898241975e-15 1.11611898272e-17)
			(0.0 57.5 15.456 7.8879205679 1.44898241975e-15 1.11611898272e-17)
			(0.0 62.5 15.456 7.8879205679 1.44898241975e-15 1.11611898272e-17)
			(0.0 67.5 15.456 7.8879205679 1.44898241975e-15 1.11611898272e-17)
			(0.0 72.5 15.456 7.8879205679 1.44898241975e-15 1.11611898272e-17)
			(0.0 77.5 15.456 7.8879205679 1.44898241975e-15 1.11611898272e-17)
			(0.0 82.5 15.456 7.8879205679 1.44898241975e-15 1.11611898272e-17)
			(0.0 87.5 15.456 7.8879205679 1.44898241975e-15 1.11611898272e-17)
			(0.0 92.5 15.456 7.8879205679 1.44898241975e-15 1.11611898272e-17)
			(0.0 97.5 15.456 7.8879205679 1.44898241975e-15 1.11611898272e-17)
			(0.0 2.5 16.779 7.97216280748 1.46446448145e-15 2.06236480865e-17)
			(0.0 7.5 16.779 7.97216280748 1.46446448145e-15 2.06236480865e-17)
			(0.0 12.5 16.779 7.97216280748 1.46446448145e-15 2.06236480865e-17)
			(0.0 17.5 16.779 7.97216280748 1.46446448145e-15 2.06236480865e-17)
			(0.0 22.5 16.779 7.97216280748 1.46446448145e-15 2.06236480865e-17)
			(0.0 27.5 16.779 7.97216280748 1.46446448145e-15 2.06236480865e-17)
			(0.0 32.5 16.779 7.97216280748 1.46446448145e-15 2.06236480865e-17)
			(0.0 37.5 16.779 7.97216280748 1.46446448145e-15 2.06236480865e-17)
			(0.0 42.5 16.779 7.97216280748 1.46446448145e-15 2.06236480865e-17)
			(0.0 47.5 16.779 7.97216280748 1.46446448145e-15 2.06236480865e-17)
			(0.0 52.5 16.779 7.97216280748 1.46446448145e-15 2.06236480865e-17)
			(0.0 57.5 16.779 7.97216280748 1.46446448145e-15 2.06236480865e-17)
			(0.0 62.5 16.779 7.97216280748 1.46446448145e-15 2.06236480865e-17)
			(0.0 67.5 16.779 7.97216280748 1.46446448145e-15 2.06236480865e-17)
			(0.0 72.5 16.779 7.97216280748 1.46446448145e-15 2.06236480865e-17)
			(0.0 77.5 16.779 7.97216280748 1.46446448145e-15 2.06236480865e-17)
			(0.0 82.5 16.779 7.97216280748 1.46446448145e-15 2.06236480865e-17)
			(0.0 87.5 16.779 7.97216280748 1.46446448145e-15 2.06236480865e-17)
			(0.0 92.5 16.779 7.97216280748 1.46446448145e-15 2.06236480865e-17)
			(0.0 97.5 16.779 7.97216280748 1.46446448145e-15 2.06236480865e-17)
			(0.0 2.5 18.1653 8.05389785892 1.47947719225e-15 2.80220162379e-17)
			(0.0 7.5 18.1653 8.05389785892 1.47947719225e-15 2.80220162379e-17)
			(0.0 12.5 18.1653 8.05389785892 1.47947719225e-15 2.80220162379e-17)
			(0.0 17.5 18.1653 8.05389785892 1.47947719225e-15 2.80220162379e-17)
			(0.0 22.5 18.1653 8.05389785892 1.47947719225e-15 2.80220162379e-17)
			(0.0 27.5 18.1653 8.05389785892 1.47947719225e-15 2.80220162379e-17)
			(0.0 32.5 18.1653 8.05389785892 1.47947719225e-15 2.80220162379e-17)
			(0.0 37.5 18.1653 8.05389785892 1.47947719225e-15 2.80220162379e-17)
			(0.0 42.5 18.1653 8.05389785892 1.47947719225e-15 2.80220162379e-17)
			(0.0 47.5 18.1653 8.05389785892 1.47947719225e-15 2.80220162379e-17)
			(0.0 52.5 18.1653 8.05389785892 1.47947719225e-15 2.80220162379e-17)
			(0.0 57.5 18.1653 8.05389785892 1.47947719225e-15 2.80220162379e-17)
			(0.0 62.5 18.1653 8.05389785892 1.47947719225e-15 2.80220162379e-17)
			(0.0 67.5 18.1653 8.05389785892 1.47947719225e-15 2.80220162379e-17)
			(0.0 72.5 18.1653 8.05389785892 1.47947719225e-15 2.80220162379e-17)
			(0.0 77.5 18.1653 8.05389785892 1.47947719225e-15 2.80220162379e-17)
			(0.0 82.5 18.1653 8.05389785892 1.47947719225e-15 2.80220162379e-17)
			(0.0 87.5 18.1653 8.05389785892 1.47947719225e-15 2.80220162379e-17)
			(0.0 92.5 18.1653 8.05389785892 1.47947719225e-15 2.80220162379e-17)
			(0.0 97.5 18.1653 8.05389785892 1.47947719225e-15 2.80220162379e-17)
			(0.0 2.5 19.6178 8.13338699136 1.49408306363e-15 1.85090806756e-17)
			(0.0 7.5 19.6178 8.13338699136 1.49408306363e-15 1.85090806756e-17)
			(0.0 12.5 19.6178 8.13338699136 1.49408306363e-15 1.85090806756e-17)
			(0.0 17.5 19.6178 8.13338699136 1.49408306363e-15 1.85090806756e-17)